IEEE data/030_bus/bpa/030bpa.DAT
(POWERFLOW,CASEID=EMS,PROJECT=TEST)
/P_INPUT_LIST,FULL\
/P_OUTPUT_LIST,FULL\
/P_ANALYSIS_RPT,LEVEL=4\
/NETWORK_DATA\
.234567890*234567890*234567890*234567890*234567890*234567890*234567890*234567890
BS    bus-1    100 1                      261. 99990-99991060                                                                                                                                                                                                                                              
BQ    bus-2    100 121.7 12.7             40.  50.  -40. 1045                                                                                                                                                                                                                                              
B     bus-3    100 12.4  1.2                                                                                                                                                                                                                                                                               
B     bus-4    100 17.6  1.6                                                                                                                                                                                                                                                                               
BQ    bus-5    100 194.2 19.                   40.  -40. 1010                                                                                                                                                                                                                                              
B     bus-6    100 1                                                                                                                                                                                                                                                                                       
B     bus-7    100 122.8 10.9                                                                                                                                                                                                                                                                              
BQ    bus-8    100 130.  30.                   40.  -10. 1010                                                                                                                                                                                                                                              
B     bus-9    100 1                                                                                                                                                                                                                                                                                       
B     bus-10   100 15.8  2.       19.                                                                                                                                                                                                                                                                      
BQ    bus-11   100 1                           24.  -6.  1082                                                                                                                                                                                                                                              
B     bus-12   100 111.2 7.5                                                                                                                                                                                                                                                                               
BQ    bus-13   100 1                           24.  -6.  1071                                                                                                                                                                                                                                              
B     bus-14   100 16.2  1.6                                                                                                                                                                                                                                                                               
B     bus-15   100 18.2  2.5                                                                                                                                                                                                                                                                               
B     bus-16   100 13.5  1.8                                                                                                                                                                                                                                                                               
B     bus-17   100 19.   5.8                                                                                                                                                                                                                                                                               
B     bus-18   100 13.2  .9                                                                                                                                                                                                                                                                                
B     bus-19   100 19.5  3.4                                                                                                                                                                                                                                                                               
B     bus-20   100 12.2  .7                                                                                                                                                                                                                                                                                
B     bus-21   100 117.5 11.2                                                                                                                                                                                                                                                                              
B     bus-22   100 1                                                                                                                                                                                                                                                                                       
B     bus-23   100 13.2  1.6                                                                                                                                                                                                                                                                               
B     bus-24   100 18.7  6.7      4.3                                                                                                                                                                                                                                                                      
B     bus-25   100 1                                                                                                                                                                                                                                                                                       
B     bus-26   100 13.5  2.3                                                                                                                                                                                                                                                                               
B     bus-27   100 1                                                                                                                                                                                                                                                                                       
B     bus-28   100 1                                                                                                                                                                                                                                                                                       
B     bus-29   100 12.4  .9                                                                                                                                                                                                                                                                                
B     bus-30   100 110.6 1.9                                                                                                                                                                                                                                                                               
-999
.234567890*234567890*234567890*234567890*234567890*234567890*234567890*234567890
.234567890*234567890*234567890*234567890*234567890*234567890*234567890*234567890
L     bus-1    100 bus-2    100       .0192 .0575       .0264                                                                                                                                                                                                                                              
L     bus-1    100 bus-3    100       .0452 .1852       .0204                                                                                                                                                                                                                                              
L     bus-2    100 bus-4    100       .057  .1737       .0184                                                                                                                                                                                                                                              
L     bus-3    100 bus-4    100       .0132 .0379       .0042                                                                                                                                                                                                                                              
L     bus-2    100 bus-5    100       .0472 .1983       .0209                                                                                                                                                                                                                                              
L     bus-2    100 bus-6    100       .0581 .1763       .0187                                                                                                                                                                                                                                              
L     bus-4    100 bus-6    100       .0119 .0414       .0045                                                                                                                                                                                                                                              
L     bus-5    100 bus-7    100       .046  .116        .0102                                                                                                                                                                                                                                              
L     bus-6    100 bus-7    100       .0267 .082        .0085                                                                                                                                                                                                                                              
L     bus-6    100 bus-8    100       .012  .042        .0045                                                                                                                                                                                                                                              
L     bus-9    100 bus-11   100             .208                                                                                                                                                                                                                                                           
L     bus-9    100 bus-10   100             .11                                                                                                                                                                                                                                                            
L     bus-12   100 bus-13   100             .14                                                                                                                                                                                                                                                            
L     bus-12   100 bus-14   100       .1231 .2559                                                                                                                                                                                                                                                          
L     bus-12   100 bus-15   100       .0662 .1304                                                                                                                                                                                                                                                          
L     bus-12   100 bus-16   100       .0945 .1987                                                                                                                                                                                                                                                          
L     bus-14   100 bus-15   100       .221  .1997                                                                                                                                                                                                                                                          
L     bus-16   100 bus-17   100       .0524 .1923                                                                                                                                                                                                                                                          
L     bus-15   100 bus-18   100       .1073 .2185                                                                                                                                                                                                                                                          
L     bus-18   100 bus-19   100       .0639 .1292                                                                                                                                                                                                                                                          
L     bus-19   100 bus-20   100       .034  .068                                                                                                                                                                                                                                                           
L     bus-10   100 bus-20   100       .0936 .209                                                                                                                                                                                                                                                           
L     bus-10   100 bus-17   100       .0324 .0845                                                                                                                                                                                                                                                          
L     bus-10   100 bus-21   100       .0348 .0749                                                                                                                                                                                                                                                          
L     bus-10   100 bus-22   100       .0727 .1499                                                                                                                                                                                                                                                          
L     bus-21   100 bus-22   100       .0116 .0236                                                                                                                                                                                                                                                          
L     bus-15   100 bus-23   100       .1    .202                                                                                                                                                                                                                                                           
L     bus-22   100 bus-24   100       .115  .179                                                                                                                                                                                                                                                           
L     bus-23   100 bus-24   100       .132  .27                                                                                                                                                                                                                                                            
L     bus-24   100 bus-25   100       .1885 .3292                                                                                                                                                                                                                                                          
L     bus-25   100 bus-26   100       .2544 .38                                                                                                                                                                                                                                                            
L     bus-25   100 bus-27   100       .1093 .2087                                                                                                                                                                                                                                                          
L     bus-27   100 bus-29   100       .2198 .4153                                                                                                                                                                                                                                                          
L     bus-27   100 bus-30   100       .3202 .6027                                                                                                                                                                                                                                                          
L     bus-29   100 bus-30   100       .2399 .4533                                                                                                                                                                                                                                                          
L     bus-8    100 bus-28   100       .0636 .2          .0214                                                                                                                                                                                                                                              
L     bus-6    100 bus-28   100       .0169 .0599       .0065                                                                                                                                                                                                                                              
T     bus-9    100 bus-6    100             .208              100. 97.8                                                                                                                                                                                                                                    
T     bus-10   100 bus-6    100             .556              100. 96.9                                                                                                                                                                                                                                    
T     bus-12   100 bus-4    100             .256              100. 93.2                                                                                                                                                                                                                                    
T     bus-27   100 bus-28   100             .396              100. 96.8                                                                                                                                                                                                                                    
.234567890*234567890*234567890*234567890*234567890*234567890*234567890*234567890
(END)